1000.00      300.00      10.00
   25.00     300.00      10.00       0.00       0.00
   75.00     300.00      10.00       0.00       0.00
  125.00     300.00      10.00       0.00       0.00
  175.00     300.00      10.00       0.00       0.00
  225.00     300.00      10.00       0.00       0.00
  275.00     300.00      10.00       0.00       0.00
  325.00     300.00      10.00       0.00       0.00
  375.00     300.00      10.00       0.00       0.00
  425.00     300.00      10.00       0.00       0.00
  475.00     300.00      10.00       0.00       0.00
  525.00     300.00      10.00       0.00       0.00
  675.00     300.00      10.00       0.00       0.00
  775.00     300.00      10.00       0.00       0.00
  875.00     300.00      10.00       0.00       0.00
  975.00     300.00      10.00       0.00       0.00
 1275.00     300.00      10.00       0.00       0.00
 2575.00     300.00      10.00       0.00       0.00
 2875.00     300.00      10.00       0.00       0.00
 3025.00     300.00      10.00       0.00       0.00
 3275.00     300.00      10.00       0.00       0.00
 3575.00     300.00      10.00       0.00       0.00
 3875.00     300.00      10.00       0.00       0.00
 4025.00     300.00      10.00       0.00       0.00
 5275.00     300.00      10.00       0.00       0.00
 5575.00     300.00      10.00       0.00       0.00
 6875.00     300.00      10.00       0.00       0.00
 7025.00     300.00      10.00       0.00       0.00
