 &time_control
 run_days                            = 0,
 run_hours                           = 0,
 run_minutes                         = 30,
 run_seconds                         = 00,
 start_year                          = 0001,
 start_month                         = 01,  
 start_day                           = 01,  
 start_hour                          = 00,  
 start_minute                        = 00,  
 start_second                        = 00,  
 end_year                            = 0001,
 end_month                           = 01,  
 end_day                             = 01,  
 end_hour                            = 01,  
 end_minute                          = 30,  
 end_second                          = 00,  
 history_interval_m                  = 0,   
 history_interval_s                  = 10,  
 frames_per_outfile                  = 90,  
 restart                             = .false.,
 restart_interval_m                  = 15,
 io_form_history                     = 2
 io_form_restart                     = 2
 io_form_input                       = 2
 io_form_boundary                    = 2
 iofields_filename                   = "myoutfields.txt"
 /

 &domains
 time_step                           = 0,
 time_step_fract_num                 = 1,
 time_step_fract_den                 = 6,
 max_dom                             = 1,
 s_we                                = 1,  
 e_we                                = 101,
 s_sn                                = 1,  
 e_sn                                = 101,
 s_vert                              = 1,  
 e_vert                              = 701,
 dx                                  = 40,  
 dy                                  = 40,  
 ztop                                = 7000,
 grid_id                             = 1,   
 parent_id                           = 0,   
 i_parent_start                      = 0,   
 j_parent_start                      = 0,   
 parent_grid_ratio                   = 1,   
 parent_time_step_ratio              = 1,    
 feedback                            = 0,
 smooth_option                       = 0
 tslist_unstagger_winds              = .true.,
 ts_buf_size                         = 10,
 max_ts_locs                         = 70,
 max_ts_level                        = 700,
 /

 &physics
 mp_physics                          = 0,    
 ra_lw_physics                       = 0,    
 ra_sw_physics                       = 0,    
 radt                                = 0,    
 sf_sfclay_physics                   = 1,    
 sf_surface_physics                  = 0,    
 bl_pbl_physics                      = 0,    
 bldt                                = 0,    
 cu_physics                          = 0,
 cudt                                = 0,
 isfflx                              = 2,
 /

 &fdda
 /

 &dynamics
 hybrid_opt                          = 0, 
 rk_ord                              = 3,
 diff_opt                            = 2,   
 km_opt                              = 2,   
 damp_opt                            = 0,
 zdamp                               = 200.,
 dampcoef                            = 0.2,
 khdif                               = 1.,
 kvdif                               = 1.,
 c_s                                 = 0.18
 c_k                                 = 0.10
 mix_isotropic                       = 1
 smdiv                               = 0.1,
 emdiv                               = 0.01,
 epssm                               = 0.1,
 tke_heat_flux                       = 0.0,
 tke_heat_flux_hot                   = 0.0,
 heat_flux_wait_mins                 = 0.,
 heat_flux_run_mins                  = 180.,
 density_current                     = 0.,
 axisymmetric_plume                  = 1.,
 lock_length                         = 0.,
 lock_height                         = 0.,
 lock_mixture                        = 0.0,
 plume_gas_constant                  = 488.92,
 plume_surface_flux                  = -10.,
 source_dia                          = 400.,
 time_step_sound                     = 6,
 h_mom_adv_order                     = 5,     
 v_mom_adv_order                     = 3,     
 h_sca_adv_order                     = 5,     
 v_sca_adv_order                     = 3,     
 mix_full_fields                     = .true.,
 non_hydrostatic                     = .true.,
 pert_coriolis                       = .false.,
 use_theta_m                         = 1,
 /

 &bdy_control
 periodic_x                          = .true., 
 symmetric_xs                        = .false.,
 symmetric_xe                        = .false.,
 open_xs                             = .false.,
 open_xe                             = .false.,
 periodic_y                          = .true., 
 symmetric_ys                        = .false.,
 symmetric_ye                        = .false.,
 open_ys                             = .false.,
 open_ye                             = .false.,
 /

 &grib2
 /

 &namelist_quilt
 nio_tasks_per_group = 0,
 nio_groups = 1,
 /

 &ideal
 ideal_case = 9
 /
